Calcium carbonate
  Avogadro12022518353D

  4  3  0  0  0  0  0  0  0  0999 V2000
   -3.8685    0.0000    0.0285 C   0  0  0  0  0  0  0  0  0  0  0  0
   -4.5737   -0.9088   -0.3926 O   0  0  0  0  0  0  0  0  0  0  0  0
   -2.8386   -0.2569    0.6400 O   0  0  0  0  0  0  0  0  0  0  0  0
   -4.1905    1.1658   -0.1663 O   0  0  0  0  0  0  0  0  0  0  0  0
  1  2  1  0  0  0  0
  1  3  1  0  0  0  0
  1  4  2  0  0  0  0
M  END
> <fileName>
D:/OneDrive - Tata Class Edge Limited/Widget/Widget 13_3D Assets_Final/Calcium_carbonate.sdf

> <name>
Calcium carbonate

$$$$
