Carbon dioxide
  Avogadro12022518513D

  3  2  0  0  0  0  0  0  0  0999 V2000
   -0.0000    0.0000    0.0000 C   0  0  0  0  0  0  0  0  0  0  0  0
   -1.6118    0.0246    0.0117 O   0  0  0  0  0  0  0  0  0  0  0  0
    1.6535    0.0190   -0.0137 O   0  0  0  0  0  0  0  0  0  0  0  0
  1  2  2  0  0  0  0
  1  3  2  0  0  0  0
M  END
> <fileName>
D:/OneDrive - Tata Class Edge Limited/Widget/Widget 13_3D Assets_Final/Carbon_dioxide.sdf

> <name>
Carbon dioxide

$$$$
