Copper sulphate
  Avogadro11282520293D

  6  4  0  0  0  0  0  0  0  0999 V2000
   -4.1974    0.0000    0.0000 S   0  0  0  0  0  0  0  0  0  0  0  0
   -5.3756    0.8680    0.1540 O   0  0  0  0  0  0  0  0  0  0  0  0
   -3.9620   -0.7343    1.2533 O   0  0  0  0  0  0  0  0  0  0  0  0
   -4.4328   -0.9572   -1.0926 O   0  5  0  0  0  0  0  0  0  0  0  0
   -3.0192    0.8235   -0.3147 O   0  5  0  0  0  0  0  0  0  0  0  0
    6.3446   -0.0000   -0.0000 Cu  0  2  0  0  0  0  0  0  0  0  0  0
  1  2  2  0  0  0  0
  1  3  2  0  0  0  0
  1  4  1  0  0  0  0
  1  5  1  0  0  0  0
M  CHG  1   4  -1
M  CHG  1   5  -1
M  CHG  1   6   2
M  END
> <name>
Copper sulphate

> <totalSpinMultiplicity>
2

$$$$
