Hydrogen peroxide
  Avogadro12022519103D

  4  3  0  0  0  0  0  0  0  0999 V2000
    0.7302   -0.0794   -0.0000 O   0  0  0  0  0  0  0  0  0  0  0  0
   -0.9967    0.3669    0.1198 O   0  0  0  0  0  0  0  0  0  0  0  0
    1.4355    1.1952    0.2073 H   0  0  0  0  0  0  0  0  0  0  0  0
   -1.4707   -1.1898   -0.2063 H   0  0  0  0  0  0  0  0  0  0  0  0
  1  2  1  0  0  0  0
  1  3  1  0  0  0  0
  2  4  1  0  0  0  0
M  END
> <fileName>
D:/OneDrive - Tata Class Edge Limited/Widget/Widget 13_3D Assets_Final/Hydrogen_peroxide.sdf

> <name>
Hydrogen peroxide

$$$$
