Hydrochloric acid
  Avogadro12022519093D

  2  1  0  0  0  0  0  0  0  0999 V2000
   -0.0379    0.0000    0.0000 Cl  0  0  0  0  0  0  0  0  0  0  0  0
    1.3321    0.0000    0.0000 H   0  0  0  0  0  0  0  0  0  0  0  0
  1  2  1  0  0  0  0
M  END
> <fileName>
D:/OneDrive - Tata Class Edge Limited/Widget/Widget 13_3D Assets_Final/Hydrochloric_acid.sdf

> <name>
Hydrochloric acid

$$$$
