O2
  Avogadro12022519173D

  2  1  0  0  0  0  0  0  0  0999 V2000
   -0.5018    0.0000    0.0000 O   0  0  0  0  0  0  0  0  0  0  0  0
    1.0814    0.0497    0.1057 O   0  0  0  0  0  0  0  0  0  0  0  0
  1  2  2  0  0  0  0
M  END
> <fileName>
D:/OneDrive - Tata Class Edge Limited/Widget/Widget 13_3D Assets_Final/Oxygen.sdf

> <name>
O2

$$$$
