Sodium hydroxide
  Avogadro12052519183D

  3  1  0  0  0  0  0  0  0  0999 V2000
   -3.5220    1.4820    0.5831 O   0  0  0  0  0  0  0  0  0  0  0  0
   -2.1227    1.2229    0.7410 H   0  0  0  0  0  0  0  0  0  0  0  0
   -3.1139    0.0921    0.9516 Na  0  1  0  0  0  0  0  0  0  0  0  0
  1  2  1  0  0  0  0
M  CHG  1   3   1
M  END
> <fileName>
D:/Workspace/widgets-ww/wg13-build-molecule/assets/3d-assets/Sodium_hydroxide.sdf

> <name>
Sodium hydroxide

$$$$
