Sodium bicarbonate
  Avogadro12052519203D

  6  4  0  0  0  0  0  0  0  0999 V2000
   -2.8711    0.0367   -0.0059 C   0  0  0  0  0  0  0  0  0  0  0  0
   -3.7977   -0.5558    0.5269 O   0  0  0  0  0  0  0  0  0  0  0  0
   -1.8425   -0.6533   -0.5246 O   0  0  0  0  0  0  0  0  0  0  0  0
   -2.8830    1.2570   -0.0710 O   0  0  0  0  0  0  0  0  0  0  0  0
   -1.4136    1.0853   -1.4673 Na  0  1  0  0  0  0  0  0  0  0  0  0
   -1.8796   -1.6169   -0.4526 H   0  0  0  0  0  0  0  0  0  0  0  0
  1  2  1  0  0  0  0
  1  3  1  0  0  0  0
  1  4  2  0  0  0  0
  3  6  1  0  0  0  0
M  CHG  1   5   1
M  END
> <fileName>
D:/Workspace/widgets-ww/wg13-build-molecule/assets/3d-assets/Sodium_bicarbonate.sdf

> <name>
Sodium bicarbonate

$$$$
