Sulphur dioxide
  Avogadro11282520033D

  3  2  0  0  0  0  0  0  0  0999 V2000
    0.0000   -0.4848   -0.0000 S   0  0  0  0  0  0  0  0  0  0  0  0
   -1.4668    0.7211   -0.0326 O   0  0  0  0  0  0  0  0  0  0  0  0
    1.3819    0.7714    0.1254 O   0  0  0  0  0  0  0  0  0  0  0  0
  1  2  2  0  0  0  0
  1  3  2  0  0  0  0
M  END
> <name>
Sulphur dioxide

$$$$
