carbon dioxide
  Avogadro11282517503D

  3  2  0  0  0  0  0  0  0  0999 V2000
   -0.0000    0.0000    0.0000 C   0  0  0  0  0  0  0  0  0  0  0  0
   -1.2080   -0.0000   -0.0000 O   0  0  0  0  0  0  0  0  0  0  0  0
    1.2080   -0.0000   -0.0000 O   0  0  0  0  0  0  0  0  0  0  0  0
  1  2  2  0  0  0  0
  1  3  2  0  0  0  0
M  END
> <fileName>
D:/OneDrive - Tata Class Edge/Desktop/CO2.cjson

> <name>
carbon dioxide

$$$$
