Water
  Avogadro11282518343D

  3  2  0  0  0  0  0  0  0  0999 V2000
   -0.0000   -0.0589   -0.0000 O   0  0  0  0  0  0  0  0  0  0  0  0
   -0.8718    0.7944    0.1071 H   0  0  0  0  0  0  0  0  0  0  0  0
    1.0544    0.5154   -0.0419 H   0  0  0  0  0  0  0  0  0  0  0  0
  1  2  1  0  0  0  0
  1  3  1  0  0  0  0
M  END
> <name>
Water

$$$$
