Ammonia
  Avogadro12022518303D

  4  3  0  0  0  0  0  0  0  0999 V2000
   -0.0000   -0.0000    0.0550 N   0  0  0  0  0  0  0  0  0  0  0  0
   -0.0299   -1.4417   -0.2448 H   0  0  0  0  0  0  0  0  0  0  0  0
    1.1157    0.6471   -0.2668 H   0  0  0  0  0  0  0  0  0  0  0  0
   -1.0717    0.6582   -0.2509 H   0  0  0  0  0  0  0  0  0  0  0  0
  1  2  1  0  0  0  0
  1  3  1  0  0  0  0
  1  4  1  0  0  0  0
M  END
> <fileName>
D:/OneDrive - Tata Class Edge Limited/Widget/Widget 13_3D Assets_Final/Ammonia.sdf

> <name>
Ammonia

$$$$
