Ethanol
  Avogadro12022519083D

  9  8  0  0  0  0  0  0  0  0999 V2000
    0.0072   -0.5687   -0.0000 C   0  0  0  0  0  0  0  0  0  0  0  0
   -1.5183    0.2712    0.0263 C   0  0  0  0  0  0  0  0  0  0  0  0
    1.3069    0.5056   -0.1321 O   0  0  0  0  0  0  0  0  0  0  0  0
    0.0453   -1.4736    1.0388 H   0  0  0  0  0  0  0  0  0  0  0  0
    0.3313   -1.3207   -0.8705 H   0  0  0  0  0  0  0  0  0  0  0  0
   -1.3175    0.8784    0.8900 H   0  0  0  0  0  0  0  0  0  0  0  0
   -1.3084    0.9842   -0.9488 H   0  0  0  0  0  0  0  0  0  0  0  0
   -2.3369   -0.7325    0.1988 H   0  0  0  0  0  0  0  0  0  0  0  0
    2.6035    0.2372   -0.3026 H   0  0  0  0  0  0  0  0  0  0  0  0
  1  2  1  0  0  0  0
  1  3  1  0  0  0  0
  1  4  1  0  0  0  0
  1  5  1  0  0  0  0
  2  6  1  0  0  0  0
  2  7  1  0  0  0  0
  2  8  1  0  0  0  0
  3  9  1  0  0  0  0
M  END
> <fileName>
D:/OneDrive - Tata Class Edge Limited/Widget/Widget 13_3D Assets_Final/Ethanol.sdf

> <name>
Ethanol

$$$$
