Methanol
  Avogadro12022519133D

  6  5  0  0  0  0  0  0  0  0999 V2000
    0.7370   -0.0147   -0.0000 C   0  0  0  0  0  0  0  0  0  0  0  0
   -0.6896    0.0677   -0.0000 O   0  0  0  0  0  0  0  0  0  0  0  0
    1.5964   -0.7264    0.9378 H   0  0  0  0  0  0  0  0  0  0  0  0
    1.0507   -0.8905   -1.0377 H   0  0  0  0  0  0  0  0  0  0  0  0
    1.2290    1.1545    0.0851 H   0  0  0  0  0  0  0  0  0  0  0  0
   -1.1653   -1.0804   -0.1284 H   0  0  0  0  0  0  0  0  0  0  0  0
  1  2  1  0  0  0  0
  1  3  1  0  0  0  0
  1  4  1  0  0  0  0
  1  5  1  0  0  0  0
  2  6  1  0  0  0  0
M  END
> <fileName>
D:/OneDrive - Tata Class Edge Limited/Widget/Widget 13_3D Assets_Final/Methanol.sdf

> <name>
Methanol

$$$$
