Methane
  Avogadro12022519113D

  5  4  0  0  0  0  0  0  0  0999 V2000
    0.0000   -0.0000    0.0000 C   0  0  0  0  0  0  0  0  0  0  0  0
   -0.0032   -1.4305   -0.6809 H   0  0  0  0  0  0  0  0  0  0  0  0
    0.1899    1.5737   -0.5276 H   0  0  0  0  0  0  0  0  0  0  0  0
   -1.4245    0.0974    0.5336 H   0  0  0  0  0  0  0  0  0  0  0  0
    1.3165    0.0425    0.7169 H   0  0  0  0  0  0  0  0  0  0  0  0
  1  2  1  0  0  0  0
  1  3  1  0  0  0  0
  1  4  1  0  0  0  0
  1  5  1  0  0  0  0
M  END
> <fileName>
D:/OneDrive - Tata Class Edge Limited/Widget/Widget 13_3D Assets_Final/Methane.sdf

> <name>
Methane

$$$$
