Potassium permanganate
  Avogadro12022519183D

  6  4  0  0  0  0  0  0  0  0999 V2000
   -2.6513    0.0000    0.0000 Mn  0  0  0  0  0  0  0  0  0  0  0  0
   -3.9380    0.9486    0.1710 O   0  0  0  0  0  0  0  0  0  0  0  0
   -2.3915   -0.8025    1.3686 O   0  0  0  0  0  0  0  0  0  0  0  0
   -2.9111   -1.0455   -1.1933 O   0  0  0  0  0  0  0  0  0  0  0  0
   -1.3646    0.8995   -0.3463 O   0  0  0  0  0  0  0  0  0  0  0  0
    8.0651   -0.0000   -0.0000 K   0  1  0  0  0  0  0  0  0  0  0  0
  1  2  2  0  0  0  0
  1  3  2  0  0  0  0
  1  4  2  0  0  0  0
  1  5  1  0  0  0  0
M  CHG  1   6   1
M  END
> <fileName>
D:/OneDrive - Tata Class Edge Limited/Widget/Widget 13_3D Assets_Final/Potassium_permanganate.sdf

> <name>
Potassium permanganate

$$$$
