Sodium hydroxide
  Avogadro12022519213D

  3  1  0  0  0  0  0  0  0  0999 V2000
   -5.2114   -0.0759   -0.1127 O   0  0  0  0  0  0  0  0  0  0  0  0
   -4.2138   -1.0991   -0.0632 H   0  0  0  0  0  0  0  0  0  0  0  0
    0.6118   -2.0788    2.3124 Na  0  1  0  0  0  0  0  0  0  0  0  0
  1  2  1  0  0  0  0
M  CHG  1   3   1
M  END
> <fileName>
D:/OneDrive - Tata Class Edge Limited/Widget/Widget 13_3D Assets_Final/Sodium_hydroxide.sdf

> <name>
Sodium hydroxide

$$$$
