Sodium chloride
  Avogadro12022519203D

  2  0  0  0  0  0  0  0  0  0999 V2000
   -1.7694    0.5640   -0.0602 Cl  0  0  0  0  0  0  0  0  0  0  0  0
    0.9958    0.4785    0.1182 Na  0  1  0  0  0  0  0  0  0  0  0  0
M  CHG  1   2   1
M  END
> <fileName>
D:/OneDrive - Tata Class Edge Limited/Widget/Widget 13_3D Assets_Final/Sodium_chloride.sdf

> <name>
Sodium chloride

$$$$
