Sulphur dioxide
  Avogadro12022519223D

  3  2  0  0  0  0  0  0  0  0999 V2000
    0.0000   -0.4848   -0.0000 S   0  0  0  0  0  0  0  0  0  0  0  0
   -1.4668    0.7211   -0.0326 O   0  0  0  0  0  0  0  0  0  0  0  0
    1.3819    0.7714    0.1254 O   0  0  0  0  0  0  0  0  0  0  0  0
  1  2  2  0  0  0  0
  1  3  2  0  0  0  0
M  END
> <fileName>
D:/OneDrive - Tata Class Edge Limited/Widget/Widget 13_3D Assets_Final/Sulphur_dioxide.sdf

> <name>
Sulphur dioxide

$$$$
